.MODEL BC546 NPN(
+AF=1
+BF=268.915
+BR=2.62685
+CJC=6.40421P
+CJE=19.7395P
+CJS=0
+CN=2.42
+D=0.87
+EG=1.11
+FC=500M
+GAMMA=1e-11
+IKF=928.913M
+IKR=463.061
+IRB=0
+IS=7.88857F
+ISC=3.68169P
+ISE=.000000121848F
+ISS=0
+ITF=9.88981M
+KF=0
+MJC=316.254M
+MJE=312.92M
+MJS=0
+NC=2
+NE=2.07029
+NF=968.124M
+NK=500M
+NR=1
+NS=1
+PTF=0
+QCO=0
+QUASIMOD=0
+RB=0
+RBM=0
+RC=0
+RCO=0
+RE=1.23191
+TF=374.789P
+TR=10N
+TRB1=0
+TRB2=0
+TRC1=0
+TRC2=0
+TRE1=0
+TRE2=0
+TRM1=0
+TRM2=0
+VAF=100
+VAR=0
+VG=1.206
+VJC=700M
+VJE=770.586M
+VJS=750M
+VO=10
+VTF=10
+XCJC=1
+XCJC2=1
+XCJS=0
+XTB=0
+XTF=499.98M
+XTI=3
+)
