.MODEL BC556 PNP(
+AF=1
+BF=389.737
+BR=1.28792
+CJC=15.5106P
+CJE=23.8222P
+CJS=0
+CN=2.20
+D=0.52
+EG=1.11
+FC=500M
+GAMMA=1e-11
+IKF=1.08563
+IKR=616.492M
+IRB=0
+IS=10F
+ISC=.68638F
+ISE=.0225163F
+ISS=0
+ITF=9.82934M
+KF=0
+MJC=713.507M
+MJE=300M
+MJS=0
+NC=2
+NE=1.04184
+NF=1
+NK=500M
+NR=1
+NS=1
+PTF=0
+QCO=0
+QUASIMOD=0
+RB=0
+RBM=0
+RC=0
+RCO=0
+RE=500.319M
+TF=389.396P
+TR=10N
+TRB1=0
+TRB2=0
+TRC1=0
+TRC2=0
+TRE1=0
+TRE2=0
+TRM1=0
+TRM2=0
+VAF=100
+VAR=0
+VG=1.206
+VJC=1
+VJE=805.212M
+VJS=750M
+VO=10
+VTF=10
+XCJC=1
+XCJC2=1
+XCJS=0
+XTB=0
+XTF=500.004M
+XTI=3
+)
