*_smn_componenttype
*BJT NPN
*_smn_endcomponenttype





.MODEL BC846AL NPN(  BF=190.541 BR=1.96581M CJC=20.6121P CJE=2P FC=500M IKF=845.925M IKR=10M IRB=0 IS=10.1692F ISC=99.9717P ISE=1.00176P ITF=10.0635M MJC=558.067M MJE=500M NE=1.79713 NF=957.858M NK=500M RBM=0 RC=2 RE=1.5884 TF=1.38896N TR=10N VAF=100 VAR=0 VJC=700M VJE=750M VJS=750M VTF=10 XTF=500.008M )


.END