*_smn_descriptioninfo
*PNP AF Transistor 65V .1A .33W
*_smn_enddescriptioninfo
*_smn_packageinfo
*SOT-23
*_smn_endpackageinfo
*_smn_nodesinfo
*shape PNP 
*_smn_endnodesinfo
*_smn_componenttype
*BJT PNP
*_smn_endcomponenttype





.MODEL BC856A PNP(  BF=186.9608 BR=99.350877M CJC=12.989363P CJE=8.763562P FC=500M IKF=180.182993M IKR=820.334554M IRB=0 IS=10.000087F ISC=.0002278334F ISE=994.538219F ITF=48.946568F MJC=388.736695M MJE=682.938039M NE=1.877008 NF=999.801576M NK=500M RBM=0 RC=145.978212M RE=759.510636M TF=706.632919P TR=10N VAF=45.700005 VAR=0 VJC=699.999988M VJE=700.269103M VJS=750M VTF=9.930556 XTF=431.649983M )


.END